LAMMPS (2 Aug 2023 - Update 1)
# LAMMPS input file

include variable.lammps
# LAMMPS variable file

variable thermo equal 200
variable dump equal 1000
variable thermo_minimize equal 25
variable dumping_minimize equal 10
variable time_step equal 1.0
variable minimization_steps equal 50
variable maximum_steps equal 20000
variable temp equal 200.0
variable tau_temp equal 100.0
variable press equal 0.9999999999999999
variable tau_press equal 999.9999999999999
variable pber equal 1

# main parameters
units real
dimension 3
atom_style full
pair_style lj/cut 10 # /coul/long
#kspace_style ewald 1e-4
boundary p p p

read_data initial.data
Reading data file ...
  orthogonal box = (-30 -30 -30) to (30 30 30)
  reading atoms ...
  50 atoms
  reading velocities ...
  50 velocities
Finding 1-2 1-3 1-4 neighbors ...
     0 = max # of 1-2 neighbors
     0 = max # of 1-3 neighbors
     0 = max # of 1-4 neighbors
     1 = max # of special neighbors
include PARM.lammps
# LAMMPS parameter file

mass 1 1.0

pair_coeff 1 1 0.1 3.0

neigh_modify every 1

thermo 25
dump mydmp all custom 10 lammps-output/dump.md.lammpstrj id type x y z vx vy vz
min_style sd
minimize 1.0e-10 1.0e-10 50 50
Generated 0 of 0 mixed pair_coeff terms from geometric mixing rule
Step          Temp          E_pair         E_mol          TotEng         Press
0   197.72096      875858.94      0              875887.82      1112536.1
Loop time of 0.00101939 on 1 procs for 47 steps with 50 atoms

Minimization stats:
  Stopping criterion = max force evaluations
  Energy initial, next-to-last, final =
  Force two-norm initial, final = 16731805 0.018192979
  Force max component initial, final = 11476319 0.009945376
  Final line search alpha, max atom move = 1 0.009945376
  Iterations, force evaluations = 47 50

min_style cg
undump mydmp
reset_timestep 0

velocity all create 200 4928459
fix mynve all nve
fix mytber all temp/berendsen 200 200 100
fix mypber all press/berendsen iso 1 1 1000 modulus 1
timestep 1

thermo 200
dump mydmp all custom 1000 lammps-output/dump.md.lammpstrj id type x y z vx vy vz

variable Ecoul equal ecoul
variable Evdwl equal evdwl
variable Epot equal pe
variable Ekin equal ke
variable Etot equal v_Epot+v_Ekin
variable volume equal vol
variable pressure equal press
variable temperature equal temp
variable mass equal mass(all)
variable density equal v_mass/v_volume/6.022e23*(1e8)^3 # g/cm3
fix myat1 all ave/time 200 1 200 v_Epot file lammps-output/Epot.dat
fix myat2 all ave/time 200 1 200 v_Ekin file lammps-output/Ekin.dat
fix myat3 all ave/time 200 1 200 v_Etot file lammps-output/Etot.dat
fix myat4 all ave/time 200 1 200 v_Ecoul file lammps-output/Ecoul.dat
fix myat5 all ave/time 200 1 200 v_Evdwl file lammps-output/Evdwl.dat
fix myat6 all ave/time 200 1 200 v_pressure file lammps-output/pressure.dat
fix myat7 all ave/time 200 1 200 v_temperature file lammps-output/temperature.dat
fix myat8 all ave/time 200 1 200 v_volume file lammps-output/volume.dat
fix myat9 all ave/time 200 1 200 v_density file lammps-output/density.dat

run 20000
Generated 0 of 0 mixed pair_coeff terms from geometric mixing rule
Step          Temp          E_pair         E_mol          TotEng         Press          Volume
0   200           -0.83176412     0              28.380174      6.1615402      216000
Averages over the last 51 of 101 rows, steps 10000 to 20000:
Temp E_pair E_mol TotEng Press Volume
199.996 -0.0233093 0 29.1881 0.999747 1.33487e+06
Loop time of 0.099497 on 1 procs for 20000 steps with 50 atoms
